SIM
 OpenBabel12112409553D

 68 70  0  0  1  0  0  0  0  0999 V2000
    0.8556   -0.3613    0.0287 H   0  0  0  0  0  0  0  0  0  0  0  0
    1.9516   -0.1785    0.0628 C   0  0  1  0  0  0  0  0  0  0  0  0
    2.1569    1.3457    0.3046 C   0  0  2  0  0  0  0  0  0  0  0  0
    1.6289    2.1117   -0.9138 C   0  0  0  0  0  0  0  0  0  0  0  0
    2.3704    1.7525   -2.2187 C   0  0  1  0  0  0  0  0  0  0  0  0
    3.6693    2.5443   -2.3995 C   0  0  0  0  0  0  0  0  0  0  0  0
    2.6768    0.2731   -2.3146 C   0  0  0  0  0  0  0  0  0  0  0  0
    2.5038   -0.6030   -1.2986 C   0  0  0  0  0  0  0  0  0  0  0  0
    2.8240   -2.0320   -1.5341 C   0  0  0  0  0  0  0  0  0  0  0  0
    2.7136   -2.9474   -0.5632 C   0  0  0  0  0  0  0  0  0  0  0  0
    2.2997   -2.6021    0.8487 C   0  0  2  0  0  0  0  0  0  0  0  0
    0.8524   -3.0780    1.0580 C   0  0  0  0  0  0  0  0  0  0  0  0
    2.5531   -1.0899    1.1761 C   0  0  2  0  0  0  0  0  0  0  0  0
    2.0797   -0.6901    2.6037 C   0  0  0  0  0  0  0  0  0  0  0  0
    2.7438   -1.5136    3.7252 C   0  0  0  0  0  0  0  0  0  0  0  0
    2.3148   -1.0789    5.1408 C   0  0  2  0  0  0  0  0  0  0  0  0
    2.7159    0.3902    5.4465 C   0  0  0  0  0  0  0  0  0  0  0  0
    2.5324    0.6735    6.9364 C   0  0  1  0  0  0  0  0  0  0  0  0
    1.1858    0.4863    7.3130 O   0  0  0  0  0  0  0  0  0  0  0  0
    3.4975   -0.2195    7.7398 C   0  0  0  0  0  0  0  0  0  0  0  0
    3.4996   -1.6350    7.2179 C   0  0  0  0  0  0  0  0  0  0  0  0
    4.1264   -2.4918    7.8195 O   0  0  0  0  0  0  0  0  0  0  0  0
    2.8623   -1.9677    6.0620 O   0  0  0  0  0  0  0  0  0  0  0  0
    3.4959    1.6352    0.5413 O   0  0  0  0  0  0  0  0  0  0  0  0
    3.9708    2.2889    1.6405 C   0  0  0  0  0  0  0  0  0  0  0  0
    3.1950    2.8429    2.4097 O   0  0  0  0  0  0  0  0  0  0  0  0
    5.4713    2.3200    1.9182 C   0  0  0  0  0  0  0  0  0  0  0  0
    5.7746    3.0756    3.2361 C   0  0  0  0  0  0  0  0  0  0  0  0
    5.9642    0.8686    2.0793 C   0  0  0  0  0  0  0  0  0  0  0  0
    6.2373    2.9732    0.7331 C   0  0  0  0  0  0  0  0  0  0  0  0
    5.7973    4.4028    0.3968 C   0  0  0  0  0  0  0  0  0  0  0  0
    1.5275    1.6497    1.1692 H   0  0  0  0  0  0  0  0  0  0  0  0
    1.6337    3.2114   -0.7504 H   0  0  0  0  0  0  0  0  0  0  0  0
    0.5637    1.8093   -1.0322 H   0  0  0  0  0  0  0  0  0  0  0  0
    1.7006    2.0483   -3.0558 H   0  0  0  0  0  0  0  0  0  0  0  0
    4.4104    2.2856   -1.6261 H   0  0  0  0  0  0  0  0  0  0  0  0
    3.4650    3.6352   -2.3561 H   0  0  0  0  0  0  0  0  0  0  0  0
    4.1178    2.3171   -3.3905 H   0  0  0  0  0  0  0  0  0  0  0  0
    3.0807   -0.0824   -3.2596 H   0  0  0  0  0  0  0  0  0  0  0  0
    3.1319   -2.3602   -2.5234 H   0  0  0  0  0  0  0  0  0  0  0  0
    2.9011   -3.9894   -0.8067 H   0  0  0  0  0  0  0  0  0  0  0  0
    2.9562   -3.1901    1.5238 H   0  0  0  0  0  0  0  0  0  0  0  0
    0.1522   -2.5373    0.3880 H   0  0  0  0  0  0  0  0  0  0  0  0
    0.5290   -2.9351    2.1082 H   0  0  0  0  0  0  0  0  0  0  0  0
    0.7760   -4.1646    0.8376 H   0  0  0  0  0  0  0  0  0  0  0  0
    3.6549   -0.9364    1.1443 H   0  0  0  0  0  0  0  0  0  0  0  0
    0.9747   -0.7666    2.6813 H   0  0  0  0  0  0  0  0  0  0  0  0
    2.3572    0.3619    2.7705 H   0  0  0  0  0  0  0  0  0  0  0  0
    3.8497   -1.4382    3.6404 H   0  0  0  0  0  0  0  0  0  0  0  0
    2.4583   -2.5796    3.6124 H   0  0  0  0  0  0  0  0  0  0  0  0
    1.2095   -1.1797    5.2119 H   0  0  0  0  0  0  0  0  0  0  0  0
    2.1021    1.0972    4.8503 H   0  0  0  0  0  0  0  0  0  0  0  0
    3.7878    0.5536    5.1942 H   0  0  0  0  0  0  0  0  0  0  0  0
    2.7885    1.7306    7.1652 H   0  0  0  0  0  0  0  0  0  0  0  0
    1.0323   -0.4746    7.5069 H   0  0  0  0  0  0  0  0  0  0  0  0
    3.2126   -0.1800    8.8134 H   0  0  0  0  0  0  0  0  0  0  0  0
    4.5386    0.1576    7.6402 H   0  0  0  0  0  0  0  0  0  0  0  0
    5.2735    2.5775    4.0948 H   0  0  0  0  0  0  0  0  0  0  0  0
    5.4111    4.1229    3.2005 H   0  0  0  0  0  0  0  0  0  0  0  0
    6.8677    3.0904    3.4370 H   0  0  0  0  0  0  0  0  0  0  0  0
    5.4345    0.3664    2.9174 H   0  0  0  0  0  0  0  0  0  0  0  0
    7.0550    0.8443    2.2919 H   0  0  0  0  0  0  0  0  0  0  0  0
    5.7831    0.2837    1.1519 H   0  0  0  0  0  0  0  0  0  0  0  0
    6.1008    2.3524   -0.1754 H   0  0  0  0  0  0  0  0  0  0  0  0
    7.3271    2.9846    0.9560 H   0  0  0  0  0  0  0  0  0  0  0  0
    4.7208    4.4302    0.1268 H   0  0  0  0  0  0  0  0  0  0  0  0
    6.3823    4.7697   -0.4726 H   0  0  0  0  0  0  0  0  0  0  0  0
    5.9822    5.0920    1.2447 H   0  0  0  0  0  0  0  0  0  0  0  0
  2  1  1  6  0  0  0
  2  3  1  0  0  0  0
  2  8  1  0  0  0  0
  2 13  1  0  0  0  0
  3  4  1  0  0  0  0
  3 24  1  0  0  0  0
  3 32  1  1  0  0  0
  4  5  1  0  0  0  0
  4 33  1  0  0  0  0
  4 34  1  0  0  0  0
  5  6  1  0  0  0  0
  5  7  1  0  0  0  0
  5 35  1  6  0  0  0
  6 36  1  0  0  0  0
  6 37  1  0  0  0  0
  6 38  1  0  0  0  0
  7  8  2  0  0  0  0
  7 39  1  0  0  0  0
  8  9  1  0  0  0  0
  9 10  2  0  0  0  0
  9 40  1  0  0  0  0
 10 11  1  0  0  0  0
 10 41  1  0  0  0  0
 11 12  1  0  0  0  0
 11 13  1  0  0  0  0
 11 42  1  1  0  0  0
 12 43  1  0  0  0  0
 12 44  1  0  0  0  0
 12 45  1  0  0  0  0
 13 14  1  0  0  0  0
 13 46  1  6  0  0  0
 14 15  1  0  0  0  0
 14 47  1  0  0  0  0
 14 48  1  0  0  0  0
 15 16  1  0  0  0  0
 15 49  1  0  0  0  0
 15 50  1  0  0  0  0
 16 17  1  0  0  0  0
 16 23  1  0  0  0  0
 16 51  1  1  0  0  0
 17 18  1  0  0  0  0
 17 52  1  0  0  0  0
 17 53  1  0  0  0  0
 18 19  1  0  0  0  0
 18 20  1  0  0  0  0
 18 54  1  1  0  0  0
 19 55  1  0  0  0  0
 20 21  1  0  0  0  0
 20 56  1  0  0  0  0
 20 57  1  0  0  0  0
 21 22  2  0  0  0  0
 21 23  1  0  0  0  0
 24 25  1  0  0  0  0
 25 26  2  0  0  0  0
 25 27  1  0  0  0  0
 27 28  1  0  0  0  0
 27 29  1  0  0  0  0
 27 30  1  0  0  0  0
 28 58  1  0  0  0  0
 28 59  1  0  0  0  0
 28 60  1  0  0  0  0
 29 61  1  0  0  0  0
 29 62  1  0  0  0  0
 29 63  1  0  0  0  0
 30 31  1  0  0  0  0
 30 64  1  0  0  0  0
 30 65  1  0  0  0  0
 31 66  1  0  0  0  0
 31 67  1  0  0  0  0
 31 68  1  0  0  0  0
M  END
>  <Energy>
353.797

$$$$
