REMARK SMILES CCC(C)(C)C(=O)O[C@H]1C[C@@H](C)C=C2C=C[C@H](C)[C@H](CC[C@@H]3C[C@@H](O)CC(=O)O3)[C@H]21
REMARK SMILES IDX 30 1 9 2 10 3 11 4 12 5 13 6 14 7 15 8 16 9 17 10 18 11
REMARK SMILES IDX 19 12 8 13 6 14 7 15 3 16 4 17 5 18 2 19 1 20 20 21 21 22
REMARK SMILES IDX 22 23 23 24 29 25 24 26 27 27 26 28 28 29 25 30
REMARK H PARENT 25 31
REMARK Flexibility Score: inf
ROOT
ATOM      1  C   UNL A   1       1.952  -0.178   0.063  1.00  0.00     0.063 C 
ATOM      2  C   UNL A   1       2.157   1.346   0.305  1.00  0.00     0.185 C 
ATOM      3  C   UNL A   1       1.629   2.112  -0.914  1.00  0.00     0.053 C 
ATOM      4  C   UNL A   1       2.370   1.752  -2.219  1.00  0.00     0.012 C 
ATOM      5  C   UNL A   1       3.669   2.544  -2.400  1.00  0.00     0.012 C 
ATOM      6  C   UNL A   1       2.677   0.273  -2.315  1.00  0.00    -0.020 C 
ATOM      7  C   UNL A   1       2.504  -0.603  -1.299  1.00  0.00    -0.045 C 
ATOM      8  C   UNL A   1       2.824  -2.032  -1.534  1.00  0.00    -0.000 C 
ATOM      9  C   UNL A   1       2.714  -2.947  -0.563  1.00  0.00    -0.023 C 
ATOM     10  C   UNL A   1       2.300  -2.602   0.849  1.00  0.00     0.012 C 
ATOM     11  C   UNL A   1       0.852  -3.078   1.058  1.00  0.00     0.012 C 
ATOM     12  C   UNL A   1       2.553  -1.090   1.176  1.00  0.00     0.007 C 
ENDROOT
BRANCH   2  13
ATOM     13  O   UNL A   1       3.496   1.635   0.541  1.00  0.00    -0.461 OA
BRANCH  13  14
ATOM     14  C   UNL A   1       3.971   2.289   1.641  1.00  0.00     0.311 C 
ATOM     15  O   UNL A   1       3.195   2.843   2.410  1.00  0.00    -0.252 OA
BRANCH  14  16
ATOM     16  C   UNL A   1       5.471   2.320   1.918  1.00  0.00     0.062 C 
ATOM     17  C   UNL A   1       5.775   3.076   3.236  1.00  0.00     0.023 C 
ATOM     18  C   UNL A   1       5.964   0.869   2.079  1.00  0.00     0.023 C 
BRANCH  16  19
ATOM     19  C   UNL A   1       6.237   2.973   0.733  1.00  0.00     0.015 C 
ATOM     20  C   UNL A   1       5.797   4.403   0.397  1.00  0.00     0.005 C 
ENDBRANCH  16  19
ENDBRANCH  14  16
ENDBRANCH  13  14
ENDBRANCH   2  13
BRANCH  12  21
ATOM     21  C   UNL A   1       2.080  -0.690   2.604  1.00  0.00     0.009 C 
BRANCH  21  22
ATOM     22  C   UNL A   1       2.744  -1.514   3.725  1.00  0.00     0.046 C 
BRANCH  22  23
ATOM     23  C   UNL A   1       2.315  -1.079   5.141  1.00  0.00     0.179 C 
ATOM     24  C   UNL A   1       2.716   0.390   5.447  1.00  0.00     0.077 C 
ATOM     25  O   UNL A   1       2.862  -1.968   6.062  1.00  0.00    -0.462 OA
ATOM     26  C   UNL A   1       2.532   0.673   6.936  1.00  0.00     0.129 C 
ATOM     27  C   UNL A   1       3.500  -1.635   7.218  1.00  0.00     0.308 C 
ATOM     28  C   UNL A   1       3.498  -0.220   7.740  1.00  0.00     0.154 C 
ATOM     29  O   UNL A   1       4.126  -2.492   7.819  1.00  0.00    -0.252 OA
BRANCH  26  30
ATOM     30  O   UNL A   1       1.186   0.486   7.313  1.00  0.00    -0.392 OA
ATOM     31  H   UNL A   1       1.032  -0.475   7.507  1.00  0.00     0.210 HD
ENDBRANCH  26  30
ENDBRANCH  22  23
ENDBRANCH  21  22
ENDBRANCH  12  21
TORSDOF 8
