MODEL 1
REMARK VINA RESULT:    -6.546      0.000      0.000
REMARK INTER + INTRA:         -11.613
REMARK INTER:                  -9.416
REMARK INTRA:                  -2.197
REMARK UNBOUND:                -2.197
REMARK SMILES CCC(C)(C)C(=O)O[C@H]1C[C@@H](C)C=C2C=C[C@H](C)[C@H](CC[C@@H]3C[C@@H](O)CC(=O)O3)[C@H]21
REMARK SMILES IDX 30 1 9 2 10 3 11 4 12 5 13 6 14 7 15 8 16 9 17 10 18 11
REMARK SMILES IDX 19 12 8 13 6 14 7 15 3 16 4 17 5 18 2 19 1 20 20 21 21 22
REMARK SMILES IDX 22 23 23 24 29 25 24 26 27 27 26 28 28 29 25 30
REMARK H PARENT 25 31
REMARK Flexibility Score: inf
ROOT
ATOM      1  C   UNL A   1     -37.161  12.422  27.174  1.00  0.00     0.063 C 
ATOM      2  C   UNL A   1     -36.981  11.584  25.874  1.00  0.00     0.185 C 
ATOM      3  C   UNL A   1     -38.213  11.788  24.984  1.00  0.00     0.053 C 
ATOM      4  C   UNL A   1     -39.523  11.322  25.652  1.00  0.00     0.012 C 
ATOM      5  C   UNL A   1     -39.769   9.818  25.487  1.00  0.00     0.012 C 
ATOM      6  C   UNL A   1     -39.573  11.671  27.124  1.00  0.00    -0.020 C 
ATOM      7  C   UNL A   1     -38.521  12.156  27.822  1.00  0.00    -0.045 C 
ATOM      8  C   UNL A   1     -38.711  12.478  29.257  1.00  0.00    -0.000 C 
ATOM      9  C   UNL A   1     -37.705  12.924  30.018  1.00  0.00    -0.023 C 
ATOM     10  C   UNL A   1     -36.295  13.096  29.500  1.00  0.00     0.012 C 
ATOM     11  C   UNL A   1     -36.029  14.600  29.314  1.00  0.00     0.012 C 
ATOM     12  C   UNL A   1     -36.032  12.217  28.229  1.00  0.00     0.007 C 
ENDROOT
BRANCH   2  13
ATOM     13  O   UNL A   1     -36.793  10.239  26.173  1.00  0.00    -0.461 OA
BRANCH  13  14
ATOM     14  C   UNL A   1     -35.866   9.431  25.581  1.00  0.00     0.311 C 
ATOM     15  O   UNL A   1     -35.221   9.834  24.620  1.00  0.00    -0.252 OA
BRANCH  14  16
ATOM     16  C   UNL A   1     -35.625   8.026  26.124  1.00  0.00     0.062 C 
ATOM     17  C   UNL A   1     -35.942   7.956  27.639  1.00  0.00     0.023 C 
ATOM     18  C   UNL A   1     -36.575   7.055  25.396  1.00  0.00     0.023 C 
BRANCH  16  19
ATOM     19  C   UNL A   1     -34.161   7.575  25.859  1.00  0.00     0.015 C 
ATOM     20  C   UNL A   1     -33.214   7.738  27.054  1.00  0.00     0.005 C 
ENDBRANCH  16  19
ENDBRANCH  14  16
ENDBRANCH  13  14
ENDBRANCH   2  13
BRANCH  12  21
ATOM     21  C   UNL A   1     -34.607  12.419  27.635  1.00  0.00     0.009 C 
BRANCH  21  22
ATOM     22  C   UNL A   1     -33.672  11.213  27.856  1.00  0.00     0.046 C 
BRANCH  22  23
ATOM     23  C   UNL A   1     -32.256  11.424  27.284  1.00  0.00     0.179 C 
ATOM     24  C   UNL A   1     -32.169  11.037  25.782  1.00  0.00     0.077 C 
ATOM     25  O   UNL A   1     -31.354  10.700  28.058  1.00  0.00    -0.462 OA
ATOM     26  C   UNL A   1     -30.706  10.988  25.348  1.00  0.00     0.129 C 
ATOM     27  C   UNL A   1     -30.358   9.896  27.591  1.00  0.00     0.308 C 
ATOM     28  C   UNL A   1     -29.987   9.870  26.129  1.00  0.00     0.154 C 
ATOM     29  O   UNL A   1     -29.786   9.148  28.365  1.00  0.00    -0.252 OA
BRANCH  26  30
ATOM     30  O   UNL A   1     -30.095  12.247  25.525  1.00  0.00    -0.392 OA
ATOM     31  H   UNL A   1     -30.112  12.742  24.665  1.00  0.00     0.210 HD
ENDBRANCH  26  30
ENDBRANCH  22  23
ENDBRANCH  21  22
ENDBRANCH  12  21
TORSDOF 8
ENDMDL
MODEL 2
REMARK VINA RESULT:    -6.464      1.805      4.891
REMARK INTER + INTRA:         -11.495
REMARK INTER:                  -9.543
REMARK INTRA:                  -1.952
REMARK UNBOUND:                -2.197
REMARK SMILES CCC(C)(C)C(=O)O[C@H]1C[C@@H](C)C=C2C=C[C@H](C)[C@H](CC[C@@H]3C[C@@H](O)CC(=O)O3)[C@H]21
REMARK SMILES IDX 30 1 9 2 10 3 11 4 12 5 13 6 14 7 15 8 16 9 17 10 18 11
REMARK SMILES IDX 19 12 8 13 6 14 7 15 3 16 4 17 5 18 2 19 1 20 20 21 21 22
REMARK SMILES IDX 22 23 23 24 29 25 24 26 27 27 26 28 28 29 25 30
REMARK H PARENT 25 31
REMARK Flexibility Score: inf
ROOT
ATOM      1  C   UNL A   1     -36.847   8.982  25.251  1.00  0.00     0.063 C 
ATOM      2  C   UNL A   1     -37.063  10.037  26.374  1.00  0.00     0.185 C 
ATOM      3  C   UNL A   1     -38.531  10.482  26.355  1.00  0.00     0.053 C 
ATOM      4  C   UNL A   1     -38.942  11.141  25.022  1.00  0.00     0.012 C 
ATOM      5  C   UNL A   1     -38.587  12.630  24.963  1.00  0.00     0.012 C 
ATOM      6  C   UNL A   1     -38.335  10.442  23.824  1.00  0.00    -0.020 C 
ATOM      7  C   UNL A   1     -37.389   9.479  23.910  1.00  0.00    -0.045 C 
ATOM      8  C   UNL A   1     -36.894   8.860  22.657  1.00  0.00    -0.000 C 
ATOM      9  C   UNL A   1     -35.932   7.929  22.664  1.00  0.00    -0.023 C 
ATOM     10  C   UNL A   1     -35.245   7.466  23.928  1.00  0.00     0.012 C 
ATOM     11  C   UNL A   1     -35.774   6.064  24.278  1.00  0.00     0.012 C 
ATOM     12  C   UNL A   1     -35.366   8.525  25.077  1.00  0.00     0.007 C 
ENDROOT
BRANCH   2  13
ATOM     13  O   UNL A   1     -36.206  11.119  26.210  1.00  0.00    -0.461 OA
BRANCH  13  14
ATOM     14  C   UNL A   1     -35.735  11.903  27.223  1.00  0.00     0.311 C 
ATOM     15  O   UNL A   1     -35.866  11.546  28.388  1.00  0.00    -0.252 OA
BRANCH  14  16
ATOM     16  C   UNL A   1     -35.036  13.220  26.903  1.00  0.00     0.062 C 
ATOM     17  C   UNL A   1     -34.375  13.170  25.502  1.00  0.00     0.023 C 
ATOM     18  C   UNL A   1     -36.094  14.340  26.888  1.00  0.00     0.023 C 
BRANCH  16  19
ATOM     19  C   UNL A   1     -33.975  13.559  27.988  1.00  0.00     0.015 C 
ATOM     20  C   UNL A   1     -34.394  14.657  28.972  1.00  0.00     0.005 C 
ENDBRANCH  16  19
ENDBRANCH  14  16
ENDBRANCH  13  14
ENDBRANCH   2  13
BRANCH  12  21
ATOM     21  C   UNL A   1     -34.721   8.050  26.411  1.00  0.00     0.009 C 
BRANCH  21  22
ATOM     22  C   UNL A   1     -33.240   7.647  26.269  1.00  0.00     0.046 C 
BRANCH  22  23
ATOM     23  C   UNL A   1     -32.269   8.633  26.951  1.00  0.00     0.179 C 
ATOM     24  C   UNL A   1     -32.623  10.112  26.637  1.00  0.00     0.077 C 
ATOM     25  O   UNL A   1     -30.971   8.317  26.560  1.00  0.00    -0.462 OA
ATOM     26  C   UNL A   1     -31.482  11.020  27.088  1.00  0.00     0.129 C 
ATOM     27  C   UNL A   1     -30.020   9.198  26.144  1.00  0.00     0.308 C 
ATOM     28  C   UNL A   1     -30.221  10.688  26.264  1.00  0.00     0.154 C 
ATOM     29  O   UNL A   1     -29.005   8.773  25.620  1.00  0.00    -0.252 OA
BRANCH  26  30
ATOM     30  O   UNL A   1     -31.267  10.893  28.476  1.00  0.00    -0.392 OA
ATOM     31  H   UNL A   1     -31.600  10.009  28.778  1.00  0.00     0.210 HD
ENDBRANCH  26  30
ENDBRANCH  22  23
ENDBRANCH  21  22
ENDBRANCH  12  21
TORSDOF 8
ENDMDL
MODEL 3
REMARK VINA RESULT:    -6.233      1.626      4.785
REMARK INTER + INTRA:         -11.164
REMARK INTER:                  -8.951
REMARK INTRA:                  -2.213
REMARK UNBOUND:                -2.197
REMARK SMILES CCC(C)(C)C(=O)O[C@H]1C[C@@H](C)C=C2C=C[C@H](C)[C@H](CC[C@@H]3C[C@@H](O)CC(=O)O3)[C@H]21
REMARK SMILES IDX 30 1 9 2 10 3 11 4 12 5 13 6 14 7 15 8 16 9 17 10 18 11
REMARK SMILES IDX 19 12 8 13 6 14 7 15 3 16 4 17 5 18 2 19 1 20 20 21 21 22
REMARK SMILES IDX 22 23 23 24 29 25 24 26 27 27 26 28 28 29 25 30
REMARK H PARENT 25 31
REMARK Flexibility Score: inf
ROOT
ATOM      1  C   UNL A   1     -37.022   8.626  25.295  1.00  0.00     0.063 C 
ATOM      2  C   UNL A   1     -37.359   9.536  26.513  1.00  0.00     0.185 C 
ATOM      3  C   UNL A   1     -38.856   9.864  26.481  1.00  0.00     0.053 C 
ATOM      4  C   UNL A   1     -39.279  10.627  25.209  1.00  0.00     0.012 C 
ATOM      5  C   UNL A   1     -39.046  12.137  25.319  1.00  0.00     0.012 C 
ATOM      6  C   UNL A   1     -38.580  10.110  23.970  1.00  0.00    -0.020 C 
ATOM      7  C   UNL A   1     -37.561   9.220  23.993  1.00  0.00    -0.045 C 
ATOM      8  C   UNL A   1     -36.978   8.779  22.702  1.00  0.00    -0.000 C 
ATOM      9  C   UNL A   1     -35.943   7.931  22.651  1.00  0.00    -0.023 C 
ATOM     10  C   UNL A   1     -35.260   7.391  23.886  1.00  0.00     0.012 C 
ATOM     11  C   UNL A   1     -35.682   5.923  24.068  1.00  0.00     0.012 C 
ATOM     12  C   UNL A   1     -35.504   8.309  25.133  1.00  0.00     0.007 C 
ENDROOT
BRANCH   2  13
ATOM     13  O   UNL A   1     -36.589  10.693  26.495  1.00  0.00    -0.461 OA
BRANCH  13  14
ATOM     14  C   UNL A   1     -36.073  11.304  27.602  1.00  0.00     0.311 C 
ATOM     15  O   UNL A   1     -35.443  10.652  28.426  1.00  0.00    -0.252 OA
BRANCH  14  16
ATOM     16  C   UNL A   1     -36.271  12.803  27.805  1.00  0.00     0.062 C 
ATOM     17  C   UNL A   1     -37.662  13.098  28.422  1.00  0.00     0.023 C 
ATOM     18  C   UNL A   1     -35.199  13.304  28.791  1.00  0.00     0.023 C 
BRANCH  16  19
ATOM     19  C   UNL A   1     -36.104  13.568  26.462  1.00  0.00     0.015 C 
ATOM     20  C   UNL A   1     -34.665  13.631  25.937  1.00  0.00     0.005 C 
ENDBRANCH  16  19
ENDBRANCH  14  16
ENDBRANCH  13  14
ENDBRANCH   2  13
BRANCH  12  21
ATOM     21  C   UNL A   1     -34.863   7.746  26.436  1.00  0.00     0.009 C 
BRANCH  21  22
ATOM     22  C   UNL A   1     -33.322   7.755  26.417  1.00  0.00     0.046 C 
BRANCH  22  23
ATOM     23  C   UNL A   1     -32.708   8.991  27.106  1.00  0.00     0.179 C 
ATOM     24  C   UNL A   1     -32.803  10.262  26.218  1.00  0.00     0.077 C 
ATOM     25  O   UNL A   1     -31.393   8.697  27.452  1.00  0.00    -0.462 OA
ATOM     26  C   UNL A   1     -31.937  11.370  26.814  1.00  0.00     0.129 C 
ATOM     27  C   UNL A   1     -30.310   9.496  27.244  1.00  0.00     0.308 C 
ATOM     28  C   UNL A   1     -30.462  10.925  26.784  1.00  0.00     0.154 C 
ATOM     29  O   UNL A   1     -29.192   9.031  27.387  1.00  0.00    -0.252 OA
BRANCH  26  30
ATOM     30  O   UNL A   1     -32.376  11.696  28.114  1.00  0.00    -0.392 OA
ATOM     31  H   UNL A   1     -32.961  12.496  28.070  1.00  0.00     0.210 HD
ENDBRANCH  26  30
ENDBRANCH  22  23
ENDBRANCH  21  22
ENDBRANCH  12  21
TORSDOF 8
ENDMDL
MODEL 4
REMARK VINA RESULT:    -6.045      2.878      6.086
REMARK INTER + INTRA:         -10.893
REMARK INTER:                  -9.153
REMARK INTRA:                  -1.740
REMARK UNBOUND:                -2.197
REMARK SMILES CCC(C)(C)C(=O)O[C@H]1C[C@@H](C)C=C2C=C[C@H](C)[C@H](CC[C@@H]3C[C@@H](O)CC(=O)O3)[C@H]21
REMARK SMILES IDX 30 1 9 2 10 3 11 4 12 5 13 6 14 7 15 8 16 9 17 10 18 11
REMARK SMILES IDX 19 12 8 13 6 14 7 15 3 16 4 17 5 18 2 19 1 20 20 21 21 22
REMARK SMILES IDX 22 23 23 24 29 25 24 26 27 27 26 28 28 29 25 30
REMARK H PARENT 25 31
REMARK Flexibility Score: inf
ROOT
ATOM      1  C   UNL A   1     -36.457  13.466  30.700  1.00  0.00     0.063 C 
ATOM      2  C   UNL A   1     -35.727  14.672  31.359  1.00  0.00     0.185 C 
ATOM      3  C   UNL A   1     -36.124  14.737  32.839  1.00  0.00     0.053 C 
ATOM      4  C   UNL A   1     -37.638  14.948  33.049  1.00  0.00     0.012 C 
ATOM      5  C   UNL A   1     -38.047  16.423  32.970  1.00  0.00     0.012 C 
ATOM      6  C   UNL A   1     -38.470  14.154  32.065  1.00  0.00    -0.020 C 
ATOM      7  C   UNL A   1     -37.957  13.492  31.002  1.00  0.00    -0.045 C 
ATOM      8  C   UNL A   1     -38.883  12.732  30.127  1.00  0.00    -0.000 C 
ATOM      9  C   UNL A   1     -38.450  12.087  29.037  1.00  0.00    -0.023 C 
ATOM     10  C   UNL A   1     -37.008  12.109  28.586  1.00  0.00     0.012 C 
ATOM     11  C   UNL A   1     -36.378  10.744  28.912  1.00  0.00     0.012 C 
ATOM     12  C   UNL A   1     -36.238  13.348  29.161  1.00  0.00     0.007 C 
ENDROOT
BRANCH   2  13
ATOM     13  O   UNL A   1     -36.036  15.858  30.702  1.00  0.00    -0.461 OA
BRANCH  13  14
ATOM     14  C   UNL A   1     -35.154  16.593  29.963  1.00  0.00     0.311 C 
ATOM     15  O   UNL A   1     -33.977  16.657  30.295  1.00  0.00    -0.252 OA
BRANCH  14  16
ATOM     16  C   UNL A   1     -35.636  17.327  28.716  1.00  0.00     0.062 C 
ATOM     17  C   UNL A   1     -36.820  16.578  28.055  1.00  0.00     0.023 C 
ATOM     18  C   UNL A   1     -36.133  18.723  29.137  1.00  0.00     0.023 C 
BRANCH  16  19
ATOM     19  C   UNL A   1     -34.474  17.504  27.697  1.00  0.00     0.015 C 
ATOM     20  C   UNL A   1     -34.623  16.687  26.408  1.00  0.00     0.005 C 
ENDBRANCH  16  19
ENDBRANCH  14  16
ENDBRANCH  13  14
ENDBRANCH   2  13
BRANCH  12  21
ATOM     21  C   UNL A   1     -34.734  13.366  28.763  1.00  0.00     0.009 C 
BRANCH  21  22
ATOM     22  C   UNL A   1     -34.493  13.126  27.259  1.00  0.00     0.046 C 
BRANCH  22  23
ATOM     23  C   UNL A   1     -33.100  12.542  26.948  1.00  0.00     0.179 C 
ATOM     24  C   UNL A   1     -32.853  12.403  25.421  1.00  0.00     0.077 C 
ATOM     25  O   UNL A   1     -32.974  11.322  27.606  1.00  0.00    -0.462 OA
ATOM     26  C   UNL A   1     -31.600  11.565  25.177  1.00  0.00     0.129 C 
ATOM     27  C   UNL A   1     -32.497  10.165  27.069  1.00  0.00     0.308 C 
ATOM     28  C   UNL A   1     -31.838  10.139  25.713  1.00  0.00     0.154 C 
ATOM     29  O   UNL A   1     -32.648   9.120  27.679  1.00  0.00    -0.252 OA
BRANCH  26  30
ATOM     30  O   UNL A   1     -30.473  12.179  25.761  1.00  0.00    -0.392 OA
ATOM     31  H   UNL A   1     -29.830  12.427  25.047  1.00  0.00     0.210 HD
ENDBRANCH  26  30
ENDBRANCH  22  23
ENDBRANCH  21  22
ENDBRANCH  12  21
TORSDOF 8
ENDMDL
MODEL 5
REMARK VINA RESULT:    -5.908      2.492      5.134
REMARK INTER + INTRA:         -10.696
REMARK INTER:                  -8.529
REMARK INTRA:                  -2.167
REMARK UNBOUND:                -2.197
REMARK SMILES CCC(C)(C)C(=O)O[C@H]1C[C@@H](C)C=C2C=C[C@H](C)[C@H](CC[C@@H]3C[C@@H](O)CC(=O)O3)[C@H]21
REMARK SMILES IDX 30 1 9 2 10 3 11 4 12 5 13 6 14 7 15 8 16 9 17 10 18 11
REMARK SMILES IDX 19 12 8 13 6 14 7 15 3 16 4 17 5 18 2 19 1 20 20 21 21 22
REMARK SMILES IDX 22 23 23 24 29 25 24 26 27 27 26 28 28 29 25 30
REMARK H PARENT 25 31
REMARK Flexibility Score: inf
ROOT
ATOM      1  C   UNL A   1     -36.531  11.124  25.970  1.00  0.00     0.063 C 
ATOM      2  C   UNL A   1     -35.295  10.694  25.127  1.00  0.00     0.185 C 
ATOM      3  C   UNL A   1     -35.596   9.341  24.471  1.00  0.00     0.053 C 
ATOM      4  C   UNL A   1     -35.863   8.220  25.497  1.00  0.00     0.012 C 
ATOM      5  C   UNL A   1     -34.574   7.576  26.018  1.00  0.00     0.012 C 
ATOM      6  C   UNL A   1     -36.684   8.702  26.673  1.00  0.00    -0.020 C 
ATOM      7  C   UNL A   1     -36.984  10.001  26.905  1.00  0.00    -0.045 C 
ATOM      8  C   UNL A   1     -37.817  10.335  28.085  1.00  0.00    -0.000 C 
ATOM      9  C   UNL A   1     -38.120  11.601  28.397  1.00  0.00    -0.023 C 
ATOM     10  C   UNL A   1     -37.613  12.787  27.608  1.00  0.00     0.012 C 
ATOM     11  C   UNL A   1     -38.777  13.344  26.771  1.00  0.00     0.012 C 
ATOM     12  C   UNL A   1     -36.321  12.432  26.793  1.00  0.00     0.007 C 
ENDROOT
BRANCH   2  13
ATOM     13  O   UNL A   1     -34.154  10.629  25.917  1.00  0.00    -0.461 OA
BRANCH  13  14
ATOM     14  C   UNL A   1     -32.892  10.925  25.491  1.00  0.00     0.311 C 
ATOM     15  O   UNL A   1     -32.704  11.305  24.342  1.00  0.00    -0.252 OA
BRANCH  14  16
ATOM     16  C   UNL A   1     -31.714  10.795  26.453  1.00  0.00     0.062 C 
ATOM     17  C   UNL A   1     -31.925  11.677  27.709  1.00  0.00     0.023 C 
ATOM     18  C   UNL A   1     -31.626   9.327  26.913  1.00  0.00     0.023 C 
BRANCH  16  19
ATOM     19  C   UNL A   1     -30.381  11.172  25.747  1.00  0.00     0.015 C 
ATOM     20  C   UNL A   1     -29.328  10.058  25.731  1.00  0.00     0.005 C 
ENDBRANCH  16  19
ENDBRANCH  14  16
ENDBRANCH  13  14
ENDBRANCH   2  13
BRANCH  12  21
ATOM     21  C   UNL A   1     -35.809  13.617  25.922  1.00  0.00     0.009 C 
BRANCH  21  22
ATOM     22  C   UNL A   1     -34.404  14.110  26.321  1.00  0.00     0.046 C 
BRANCH  22  23
ATOM     23  C   UNL A   1     -34.418  15.122  27.486  1.00  0.00     0.179 C 
ATOM     24  C   UNL A   1     -34.296  14.423  28.867  1.00  0.00     0.077 C 
ATOM     25  O   UNL A   1     -35.577  15.888  27.393  1.00  0.00    -0.462 OA
ATOM     26  C   UNL A   1     -34.603  15.425  29.978  1.00  0.00     0.129 C 
ATOM     27  C   UNL A   1     -36.424  16.190  28.415  1.00  0.00     0.308 C 
ATOM     28  C   UNL A   1     -36.069  15.885  29.849  1.00  0.00     0.154 C 
ATOM     29  O   UNL A   1     -37.513  16.675  28.160  1.00  0.00    -0.252 OA
BRANCH  26  30
ATOM     30  O   UNL A   1     -33.695  16.503  29.937  1.00  0.00    -0.392 OA
ATOM     31  H   UNL A   1     -32.826  16.184  29.579  1.00  0.00     0.210 HD
ENDBRANCH  26  30
ENDBRANCH  22  23
ENDBRANCH  21  22
ENDBRANCH  12  21
TORSDOF 8
ENDMDL
MODEL 6
REMARK VINA RESULT:    -5.863      2.176      5.251
REMARK INTER + INTRA:         -10.630
REMARK INTER:                  -8.630
REMARK INTRA:                  -2.000
REMARK UNBOUND:                -2.197
REMARK SMILES CCC(C)(C)C(=O)O[C@H]1C[C@@H](C)C=C2C=C[C@H](C)[C@H](CC[C@@H]3C[C@@H](O)CC(=O)O3)[C@H]21
REMARK SMILES IDX 30 1 9 2 10 3 11 4 12 5 13 6 14 7 15 8 16 9 17 10 18 11
REMARK SMILES IDX 19 12 8 13 6 14 7 15 3 16 4 17 5 18 2 19 1 20 20 21 21 22
REMARK SMILES IDX 22 23 23 24 29 25 24 26 27 27 26 28 28 29 25 30
REMARK H PARENT 25 31
REMARK Flexibility Score: inf
ROOT
ATOM      1  C   UNL A   1     -37.166  12.635  26.174  1.00  0.00     0.063 C 
ATOM      2  C   UNL A   1     -36.474  11.852  27.328  1.00  0.00     0.185 C 
ATOM      3  C   UNL A   1     -36.920  12.453  28.666  1.00  0.00     0.053 C 
ATOM      4  C   UNL A   1     -36.527  13.938  28.820  1.00  0.00     0.012 C 
ATOM      5  C   UNL A   1     -35.091  14.121  29.322  1.00  0.00     0.012 C 
ATOM      6  C   UNL A   1     -36.702  14.714  27.532  1.00  0.00    -0.020 C 
ATOM      7  C   UNL A   1     -36.979  14.145  26.337  1.00  0.00    -0.045 C 
ATOM      8  C   UNL A   1     -37.147  15.025  25.155  1.00  0.00    -0.000 C 
ATOM      9  C   UNL A   1     -37.383  14.528  23.935  1.00  0.00    -0.023 C 
ATOM     10  C   UNL A   1     -37.457  13.045  23.651  1.00  0.00     0.012 C 
ATOM     11  C   UNL A   1     -38.933  12.667  23.438  1.00  0.00     0.012 C 
ATOM     12  C   UNL A   1     -36.711  12.206  24.745  1.00  0.00     0.007 C 
ENDROOT
BRANCH   2  13
ATOM     13  O   UNL A   1     -35.091  11.891  27.194  1.00  0.00    -0.461 OA
BRANCH  13  14
ATOM     14  C   UNL A   1     -34.253  10.842  27.444  1.00  0.00     0.311 C 
ATOM     15  O   UNL A   1     -34.653   9.873  28.077  1.00  0.00    -0.252 OA
BRANCH  14  16
ATOM     16  C   UNL A   1     -32.819  10.874  26.924  1.00  0.00     0.062 C 
ATOM     17  C   UNL A   1     -32.766  11.433  25.480  1.00  0.00     0.023 C 
ATOM     18  C   UNL A   1     -31.998  11.815  27.827  1.00  0.00     0.023 C 
BRANCH  16  19
ATOM     19  C   UNL A   1     -32.182   9.457  26.978  1.00  0.00     0.015 C 
ATOM     20  C   UNL A   1     -30.652   9.448  27.090  1.00  0.00     0.005 C 
ENDBRANCH  16  19
ENDBRANCH  14  16
ENDBRANCH  13  14
ENDBRANCH   2  13
BRANCH  12  21
ATOM     21  C   UNL A   1     -36.821  10.671  24.513  1.00  0.00     0.009 C 
BRANCH  21  22
ATOM     22  C   UNL A   1     -35.707  10.103  23.612  1.00  0.00     0.046 C 
BRANCH  22  23
ATOM     23  C   UNL A   1     -35.311   8.655  23.965  1.00  0.00     0.179 C 
ATOM     24  C   UNL A   1     -36.008   7.618  23.043  1.00  0.00     0.077 C 
ATOM     25  O   UNL A   1     -35.602   8.432  25.308  1.00  0.00    -0.462 OA
ATOM     26  C   UNL A   1     -35.815   6.214  23.610  1.00  0.00     0.129 C 
ATOM     27  C   UNL A   1     -36.237   7.342  25.822  1.00  0.00     0.308 C 
ATOM     28  C   UNL A   1     -36.519   6.124  24.979  1.00  0.00     0.154 C 
ATOM     29  O   UNL A   1     -36.628   7.373  26.977  1.00  0.00    -0.252 OA
BRANCH  26  30
ATOM     30  O   UNL A   1     -34.443   5.896  23.689  1.00  0.00    -0.392 OA
ATOM     31  H   UNL A   1     -33.917   6.611  23.245  1.00  0.00     0.210 HD
ENDBRANCH  26  30
ENDBRANCH  22  23
ENDBRANCH  21  22
ENDBRANCH  12  21
TORSDOF 8
ENDMDL
MODEL 7
REMARK VINA RESULT:    -5.799      2.060      4.930
REMARK INTER + INTRA:         -10.539
REMARK INTER:                  -8.533
REMARK INTRA:                  -2.006
REMARK UNBOUND:                -2.197
REMARK SMILES CCC(C)(C)C(=O)O[C@H]1C[C@@H](C)C=C2C=C[C@H](C)[C@H](CC[C@@H]3C[C@@H](O)CC(=O)O3)[C@H]21
REMARK SMILES IDX 30 1 9 2 10 3 11 4 12 5 13 6 14 7 15 8 16 9 17 10 18 11
REMARK SMILES IDX 19 12 8 13 6 14 7 15 3 16 4 17 5 18 2 19 1 20 20 21 21 22
REMARK SMILES IDX 22 23 23 24 29 25 24 26 27 27 26 28 28 29 25 30
REMARK H PARENT 25 31
REMARK Flexibility Score: inf
ROOT
ATOM      1  C   UNL A   1     -37.199  11.790  27.199  1.00  0.00     0.063 C 
ATOM      2  C   UNL A   1     -37.567  12.125  28.674  1.00  0.00     0.185 C 
ATOM      3  C   UNL A   1     -39.055  11.824  28.889  1.00  0.00     0.053 C 
ATOM      4  C   UNL A   1     -39.977  12.669  27.984  1.00  0.00     0.012 C 
ATOM      5  C   UNL A   1     -40.268  14.056  28.566  1.00  0.00     0.012 C 
ATOM      6  C   UNL A   1     -39.419  12.828  26.586  1.00  0.00    -0.020 C 
ATOM      7  C   UNL A   1     -38.173  12.448  26.221  1.00  0.00    -0.045 C 
ATOM      8  C   UNL A   1     -37.759  12.641  24.810  1.00  0.00    -0.000 C 
ATOM      9  C   UNL A   1     -36.529  12.324  24.387  1.00  0.00    -0.023 C 
ATOM     10  C   UNL A   1     -35.456  11.788  25.307  1.00  0.00     0.012 C 
ATOM     11  C   UNL A   1     -35.290  10.284  25.031  1.00  0.00     0.012 C 
ATOM     12  C   UNL A   1     -35.736  12.159  26.804  1.00  0.00     0.007 C 
ENDROOT
BRANCH   2  13
ATOM     13  O   UNL A   1     -37.272  13.450  28.970  1.00  0.00    -0.461 OA
BRANCH  13  14
ATOM     14  C   UNL A   1     -36.574  13.869  30.066  1.00  0.00     0.311 C 
ATOM     15  O   UNL A   1     -36.564  13.189  31.085  1.00  0.00    -0.252 OA
BRANCH  14  16
ATOM     16  C   UNL A   1     -35.797  15.181  30.018  1.00  0.00     0.062 C 
ATOM     17  C   UNL A   1     -36.640  16.299  29.355  1.00  0.00     0.023 C 
ATOM     18  C   UNL A   1     -35.487  15.614  31.464  1.00  0.00     0.023 C 
BRANCH  16  19
ATOM     19  C   UNL A   1     -34.453  14.997  29.258  1.00  0.00     0.015 C 
ATOM     20  C   UNL A   1     -34.467  15.485  27.805  1.00  0.00     0.005 C 
ENDBRANCH  16  19
ENDBRANCH  14  16
ENDBRANCH  13  14
ENDBRANCH   2  13
BRANCH  12  21
ATOM     21  C   UNL A   1     -34.680  11.569  27.784  1.00  0.00     0.009 C 
BRANCH  21  22
ATOM     22  C   UNL A   1     -33.225  11.879  27.378  1.00  0.00     0.046 C 
BRANCH  22  23
ATOM     23  C   UNL A   1     -32.234  10.756  27.747  1.00  0.00     0.179 C 
ATOM     24  C   UNL A   1     -30.944  10.809  26.884  1.00  0.00     0.077 C 
ATOM     25  O   UNL A   1     -32.887   9.532  27.627  1.00  0.00    -0.462 OA
ATOM     26  C   UNL A   1     -30.139   9.527  27.084  1.00  0.00     0.129 C 
ATOM     27  C   UNL A   1     -32.400   8.418  27.014  1.00  0.00     0.308 C 
ATOM     28  C   UNL A   1     -30.963   8.331  26.565  1.00  0.00     0.154 C 
ATOM     29  O   UNL A   1     -33.155   7.489  26.782  1.00  0.00    -0.252 OA
BRANCH  26  30
ATOM     30  O   UNL A   1     -29.770   9.380  28.437  1.00  0.00    -0.392 OA
ATOM     31  H   UNL A   1     -28.785   9.464  28.518  1.00  0.00     0.210 HD
ENDBRANCH  26  30
ENDBRANCH  22  23
ENDBRANCH  21  22
ENDBRANCH  12  21
TORSDOF 8
ENDMDL
MODEL 8
REMARK VINA RESULT:    -5.668      9.628     12.773
REMARK INTER + INTRA:         -10.350
REMARK INTER:                  -8.157
REMARK INTRA:                  -2.193
REMARK UNBOUND:                -2.197
REMARK SMILES CCC(C)(C)C(=O)O[C@H]1C[C@@H](C)C=C2C=C[C@H](C)[C@H](CC[C@@H]3C[C@@H](O)CC(=O)O3)[C@H]21
REMARK SMILES IDX 30 1 9 2 10 3 11 4 12 5 13 6 14 7 15 8 16 9 17 10 18 11
REMARK SMILES IDX 19 12 8 13 6 14 7 15 3 16 4 17 5 18 2 19 1 20 20 21 21 22
REMARK SMILES IDX 22 23 23 24 29 25 24 26 27 27 26 28 28 29 25 30
REMARK H PARENT 25 31
REMARK Flexibility Score: inf
ROOT
ATOM      1  C   UNL A   1     -28.381  20.314  22.097  1.00  0.00     0.063 C 
ATOM      2  C   UNL A   1     -28.239  18.826  21.661  1.00  0.00     0.185 C 
ATOM      3  C   UNL A   1     -26.748  18.489  21.545  1.00  0.00     0.053 C 
ATOM      4  C   UNL A   1     -26.016  19.346  20.492  1.00  0.00     0.012 C 
ATOM      5  C   UNL A   1     -26.157  18.788  19.072  1.00  0.00     0.012 C 
ATOM      6  C   UNL A   1     -26.478  20.787  20.503  1.00  0.00    -0.020 C 
ATOM      7  C   UNL A   1     -27.541  21.235  21.209  1.00  0.00    -0.045 C 
ATOM      8  C   UNL A   1     -27.874  22.679  21.149  1.00  0.00    -0.000 C 
ATOM      9  C   UNL A   1     -28.934  23.185  21.791  1.00  0.00    -0.023 C 
ATOM     10  C   UNL A   1     -29.896  22.333  22.588  1.00  0.00     0.012 C 
ATOM     11  C   UNL A   1     -29.628  22.574  24.084  1.00  0.00     0.012 C 
ATOM     12  C   UNL A   1     -29.851  20.832  22.141  1.00  0.00     0.007 C 
ENDROOT
BRANCH   2  13
ATOM     13  O   UNL A   1     -28.903  18.596  20.461  1.00  0.00    -0.461 OA
BRANCH  13  14
ATOM     14  C   UNL A   1     -29.936  17.719  20.297  1.00  0.00     0.311 C 
ATOM     15  O   UNL A   1     -29.897  16.616  20.828  1.00  0.00    -0.252 OA
BRANCH  14  16
ATOM     16  C   UNL A   1     -31.147  18.119  19.460  1.00  0.00     0.062 C 
ATOM     17  C   UNL A   1     -31.390  17.102  18.317  1.00  0.00     0.023 C 
ATOM     18  C   UNL A   1     -32.389  18.114  20.371  1.00  0.00     0.023 C 
BRANCH  16  19
ATOM     19  C   UNL A   1     -30.966  19.550  18.879  1.00  0.00     0.015 C 
ATOM     20  C   UNL A   1     -32.041  20.556  19.310  1.00  0.00     0.005 C 
ENDBRANCH  16  19
ENDBRANCH  14  16
ENDBRANCH  13  14
ENDBRANCH   2  13
BRANCH  12  21
ATOM     21  C   UNL A   1     -30.787  19.918  22.985  1.00  0.00     0.009 C 
BRANCH  21  22
ATOM     22  C   UNL A   1     -32.204  20.496  23.172  1.00  0.00     0.046 C 
BRANCH  22  23
ATOM     23  C   UNL A   1     -32.698  20.444  24.632  1.00  0.00     0.179 C 
ATOM     24  C   UNL A   1     -31.702  19.696  25.560  1.00  0.00     0.077 C 
ATOM     25  O   UNL A   1     -33.962  19.860  24.651  1.00  0.00    -0.462 OA
ATOM     26  C   UNL A   1     -32.362  19.424  26.909  1.00  0.00     0.129 C 
ATOM     27  C   UNL A   1     -34.384  18.888  25.507  1.00  0.00     0.308 C 
ATOM     28  C   UNL A   1     -33.559  18.476  26.700  1.00  0.00     0.154 C 
ATOM     29  O   UNL A   1     -35.431  18.307  25.275  1.00  0.00    -0.252 OA
BRANCH  26  30
ATOM     30  O   UNL A   1     -32.735  20.633  27.531  1.00  0.00    -0.392 OA
ATOM     31  H   UNL A   1     -32.841  21.337  26.839  1.00  0.00     0.210 HD
ENDBRANCH  26  30
ENDBRANCH  22  23
ENDBRANCH  21  22
ENDBRANCH  12  21
TORSDOF 8
ENDMDL
MODEL 9
REMARK VINA RESULT:    -5.648      2.108      4.883
REMARK INTER + INTRA:         -10.321
REMARK INTER:                  -8.187
REMARK INTRA:                  -2.134
REMARK UNBOUND:                -2.197
REMARK SMILES CCC(C)(C)C(=O)O[C@H]1C[C@@H](C)C=C2C=C[C@H](C)[C@H](CC[C@@H]3C[C@@H](O)CC(=O)O3)[C@H]21
REMARK SMILES IDX 30 1 9 2 10 3 11 4 12 5 13 6 14 7 15 8 16 9 17 10 18 11
REMARK SMILES IDX 19 12 8 13 6 14 7 15 3 16 4 17 5 18 2 19 1 20 20 21 21 22
REMARK SMILES IDX 22 23 23 24 29 25 24 26 27 27 26 28 28 29 25 30
REMARK H PARENT 25 31
REMARK Flexibility Score: inf
ROOT
ATOM      1  C   UNL A   1     -37.392   7.847  24.981  1.00  0.00     0.063 C 
ATOM      2  C   UNL A   1     -37.243   7.999  26.523  1.00  0.00     0.185 C 
ATOM      3  C   UNL A   1     -38.169   6.986  27.208  1.00  0.00     0.053 C 
ATOM      4  C   UNL A   1     -39.658   7.207  26.869  1.00  0.00     0.012 C 
ATOM      5  C   UNL A   1     -40.317   8.269  27.755  1.00  0.00     0.012 C 
ATOM      6  C   UNL A   1     -39.867   7.579  25.416  1.00  0.00    -0.020 C 
ATOM      7  C   UNL A   1     -38.863   7.877  24.561  1.00  0.00    -0.045 C 
ATOM      8  C   UNL A   1     -39.205   8.205  23.155  1.00  0.00    -0.000 C 
ATOM      9  C   UNL A   1     -38.266   8.548  22.264  1.00  0.00    -0.023 C 
ATOM     10  C   UNL A   1     -36.802   8.671  22.617  1.00  0.00     0.012 C 
ATOM     11  C   UNL A   1     -36.061   7.455  22.035  1.00  0.00     0.012 C 
ATOM     12  C   UNL A   1     -36.592   8.899  24.154  1.00  0.00     0.007 C 
ENDROOT
BRANCH   2  13
ATOM     13  O   UNL A   1     -37.532   9.298  26.925  1.00  0.00    -0.461 OA
BRANCH  13  14
ATOM     14  C   UNL A   1     -36.726  10.068  27.712  1.00  0.00     0.311 C 
ATOM     15  O   UNL A   1     -35.899   9.542  28.447  1.00  0.00    -0.252 OA
BRANCH  14  16
ATOM     16  C   UNL A   1     -36.849  11.588  27.668  1.00  0.00     0.062 C 
ATOM     17  C   UNL A   1     -37.116  12.081  26.224  1.00  0.00     0.023 C 
ATOM     18  C   UNL A   1     -38.051  12.003  28.540  1.00  0.00     0.023 C 
BRANCH  16  19
ATOM     19  C   UNL A   1     -35.570  12.262  28.240  1.00  0.00     0.015 C 
ATOM     20  C   UNL A   1     -35.833  13.362  29.275  1.00  0.00     0.005 C 
ENDBRANCH  16  19
ENDBRANCH  14  16
ENDBRANCH  13  14
ENDBRANCH   2  13
BRANCH  12  21
ATOM     21  C   UNL A   1     -35.091   8.969  24.558  1.00  0.00     0.009 C 
BRANCH  21  22
ATOM     22  C   UNL A   1     -34.462  10.361  24.351  1.00  0.00     0.046 C 
BRANCH  22  23
ATOM     23  C   UNL A   1     -33.586  10.820  25.534  1.00  0.00     0.179 C 
ATOM     24  C   UNL A   1     -32.261  11.478  25.059  1.00  0.00     0.077 C 
ATOM     25  O   UNL A   1     -33.353   9.726  26.363  1.00  0.00    -0.462 OA
ATOM     26  C   UNL A   1     -31.317  11.647  26.247  1.00  0.00     0.129 C 
ATOM     27  C   UNL A   1     -32.152   9.359  26.890  1.00  0.00     0.308 C 
ATOM     28  C   UNL A   1     -30.942  10.254  26.793  1.00  0.00     0.154 C 
ATOM     29  O   UNL A   1     -32.043   8.262  27.411  1.00  0.00    -0.252 OA
BRANCH  26  30
ATOM     30  O   UNL A   1     -31.902  12.471  27.231  1.00  0.00    -0.392 OA
ATOM     31  H   UNL A   1     -31.424  12.341  28.091  1.00  0.00     0.210 HD
ENDBRANCH  26  30
ENDBRANCH  22  23
ENDBRANCH  21  22
ENDBRANCH  12  21
TORSDOF 8
ENDMDL
